# generated using pymatgen
data_Li4Fe4Si11(PO4)4
_symmetry_space_group_name_H-M   'P 1'
_cell_length_a   7.69855882
_cell_length_b   36.71977908
_cell_length_c   56.89399175
_cell_angle_alpha   90.00000000
_cell_angle_beta   90.00000000
_cell_angle_gamma   86.99552753
_symmetry_Int_Tables_number   1
_chemical_formula_structural   Li4Fe4Si11(PO4)4
_chemical_formula_sum   'Li80 Fe80 Si220 P80 O320'
_cell_volume   16061.21981452
_cell_formula_units_Z   20
loop_
 _symmetry_equiv_pos_site_id
 _symmetry_equiv_pos_as_xyz
  1  'x, y, z'
loop_
 _atom_site_type_symbol
 _atom_site_label
 _atom_site_symmetry_multiplicity
 _atom_site_fract_x
 _atom_site_fract_y
 _atom_site_fract_z
 _atom_site_occupancy
  Li+  Li0  1  0.00000000  0.00000000  0.60914066  1
  Li+  Li1  1  0.20000000  0.20000000  0.60914066  1
  Li+  Li2  1  0.60000000  0.10000000  0.60914066  1
  Li+  Li3  1  0.00000000  0.50000000  0.60914066  1
  Li+  Li4  1  0.40000000  0.40000000  0.60914066  1
  Li+  Li5  1  0.80000000  0.30000000  0.60914066  1
  Li+  Li6  1  0.20000000  0.70000000  0.60914066  1
  Li+  Li7  1  0.60000000  0.60000000  0.60914066  1
  Li+  Li8  1  0.40000000  0.90000000  0.60914066  1
  Li+  Li9  1  0.80000000  0.80000000  0.60914066  1
  Li+  Li10  1  0.50000000  0.00000000  0.69909916  1
  Li+  Li11  1  0.70000000  0.20000000  0.69909916  1
  Li+  Li12  1  0.10000000  0.10000000  0.69909916  1
  Li+  Li13  1  0.50000000  0.50000000  0.69909916  1
  Li+  Li14  1  0.90000000  0.40000000  0.69909916  1
  Li+  Li15  1  0.30000000  0.30000000  0.69909916  1
  Li+  Li16  1  0.70000000  0.70000000  0.69909916  1
  Li+  Li17  1  0.10000000  0.60000000  0.69909916  1
  Li+  Li18  1  0.90000000  0.90000000  0.69909916  1
  Li+  Li19  1  0.30000000  0.80000000  0.69909916  1
  Li+  Li20  1  0.20000000  0.95000000  0.69909916  1
  Li+  Li21  1  0.40000000  0.15000000  0.69909916  1
  Li+  Li22  1  0.80000000  0.05000000  0.69909916  1
  Li+  Li23  1  0.20000000  0.45000000  0.69909916  1
  Li+  Li24  1  0.60000000  0.35000000  0.69909916  1
  Li+  Li25  1  0.00000000  0.25000000  0.69909916  1
  Li+  Li26  1  0.40000000  0.65000000  0.69909916  1
  Li+  Li27  1  0.80000000  0.55000000  0.69909916  1
  Li+  Li28  1  0.60000000  0.85000000  0.69909916  1
  Li+  Li29  1  -0.00000000  0.75000000  0.69909916  1
  Li+  Li30  1  0.30000000  0.05000000  0.60914066  1
  Li+  Li31  1  0.50000000  0.25000000  0.60914066  1
  Li+  Li32  1  0.90000000  0.15000000  0.60914066  1
  Li+  Li33  1  0.30000000  0.55000000  0.60914066  1
  Li+  Li34  1  0.70000000  0.45000000  0.60914066  1
  Li+  Li35  1  0.10000000  0.35000000  0.60914066  1
  Li+  Li36  1  0.50000000  0.75000000  0.60914066  1
  Li+  Li37  1  0.90000000  0.65000000  0.60914066  1
  Li+  Li38  1  0.70000000  0.95000000  0.60914066  1
  Li+  Li39  1  0.10000000  0.85000000  0.60914066  1
  Li+  Li40  1  0.00000000  0.00000000  0.42922367  1
  Li+  Li41  1  0.20000000  0.20000000  0.42922367  1
  Li+  Li42  1  0.60000000  0.10000000  0.42922367  1
  Li+  Li43  1  0.00000000  0.50000000  0.42922367  1
  Li+  Li44  1  0.40000000  0.40000000  0.42922367  1
  Li+  Li45  1  0.80000000  0.30000000  0.42922367  1
  Li+  Li46  1  0.20000000  0.70000000  0.42922367  1
  Li+  Li47  1  0.60000000  0.60000000  0.42922367  1
  Li+  Li48  1  0.40000000  0.90000000  0.42922367  1
  Li+  Li49  1  0.80000000  0.80000000  0.42922367  1
  Li+  Li50  1  0.50000000  0.00000000  0.51918217  1
  Li+  Li51  1  0.70000000  0.20000000  0.51918217  1
  Li+  Li52  1  0.10000000  0.10000000  0.51918217  1
  Li+  Li53  1  0.50000000  0.50000000  0.51918217  1
  Li+  Li54  1  0.90000000  0.40000000  0.51918217  1
  Li+  Li55  1  0.30000000  0.30000000  0.51918217  1
  Li+  Li56  1  0.70000000  0.70000000  0.51918217  1
  Li+  Li57  1  0.10000000  0.60000000  0.51918217  1
  Li+  Li58  1  0.90000000  0.90000000  0.51918217  1
  Li+  Li59  1  0.30000000  0.80000000  0.51918217  1
  Li+  Li60  1  0.20000000  0.95000000  0.51918217  1
  Li+  Li61  1  0.40000000  0.15000000  0.51918217  1
  Li+  Li62  1  0.80000000  0.05000000  0.51918217  1
  Li+  Li63  1  0.20000000  0.45000000  0.51918217  1
  Li+  Li64  1  0.60000000  0.35000000  0.51918217  1
  Li+  Li65  1  0.00000000  0.25000000  0.51918217  1
  Li+  Li66  1  0.40000000  0.65000000  0.51918217  1
  Li+  Li67  1  0.80000000  0.55000000  0.51918217  1
  Li+  Li68  1  0.60000000  0.85000000  0.51918217  1
  Li+  Li69  1  -0.00000000  0.75000000  0.51918217  1
  Li+  Li70  1  0.30000000  0.05000000  0.42922367  1
  Li+  Li71  1  0.50000000  0.25000000  0.42922367  1
  Li+  Li72  1  0.90000000  0.15000000  0.42922367  1
  Li+  Li73  1  0.30000000  0.55000000  0.42922367  1
  Li+  Li74  1  0.70000000  0.45000000  0.42922367  1
  Li+  Li75  1  0.10000000  0.35000000  0.42922367  1
  Li+  Li76  1  0.50000000  0.75000000  0.42922367  1
  Li+  Li77  1  0.90000000  0.65000000  0.42922367  1
  Li+  Li78  1  0.70000000  0.95000000  0.42922367  1
  Li+  Li79  1  0.10000000  0.85000000  0.42922367  1
  Fe2+  Fe80  1  0.36194629  0.97201343  0.64851527  1
  Fe2+  Fe81  1  0.56194629  0.17201343  0.64851527  1
  Fe2+  Fe82  1  0.96194629  0.07201343  0.64851527  1
  Fe2+  Fe83  1  0.36194629  0.47201343  0.64851527  1
  Fe2+  Fe84  1  0.76194629  0.37201343  0.64851527  1
  Fe2+  Fe85  1  0.16194629  0.27201343  0.64851527  1
  Fe2+  Fe86  1  0.56194629  0.67201343  0.64851527  1
  Fe2+  Fe87  1  0.96194629  0.57201343  0.64851527  1
  Fe2+  Fe88  1  0.76194629  0.87201343  0.64851527  1
  Fe2+  Fe89  1  0.16194629  0.77201343  0.64851527  1
  Fe2+  Fe90  1  0.46194709  0.07201323  0.65972456  1
  Fe2+  Fe91  1  0.66194709  0.27201323  0.65972456  1
  Fe2+  Fe92  1  0.06194709  0.17201323  0.65972456  1
  Fe2+  Fe93  1  0.46194709  0.57201323  0.65972456  1
  Fe2+  Fe94  1  0.86194709  0.47201323  0.65972456  1
  Fe2+  Fe95  1  0.26194709  0.37201323  0.65972456  1
  Fe2+  Fe96  1  0.66194709  0.77201323  0.65972456  1
  Fe2+  Fe97  1  0.06194709  0.67201323  0.65972456  1
  Fe2+  Fe98  1  0.86194709  0.97201323  0.65972456  1
  Fe2+  Fe99  1  0.26194709  0.87201323  0.65972456  1
  Fe2+  Fe100  1  0.53805331  0.92798667  0.73847377  1
  Fe2+  Fe101  1  0.73805331  0.12798667  0.73847377  1
  Fe2+  Fe102  1  0.13805331  0.02798667  0.73847377  1
  Fe2+  Fe103  1  0.53805331  0.42798667  0.73847377  1
  Fe2+  Fe104  1  0.93805331  0.32798667  0.73847377  1
  Fe2+  Fe105  1  0.33805331  0.22798667  0.73847377  1
  Fe2+  Fe106  1  0.73805331  0.62798667  0.73847377  1
  Fe2+  Fe107  1  0.13805331  0.52798667  0.73847377  1
  Fe2+  Fe108  1  0.93805331  0.82798667  0.73847377  1
  Fe2+  Fe109  1  0.33805331  0.72798667  0.73847377  1
  Fe2+  Fe110  1  0.63805331  0.02798667  0.74968305  1
  Fe2+  Fe111  1  0.83805331  0.22798667  0.74968305  1
  Fe2+  Fe112  1  0.23805331  0.12798667  0.74968305  1
  Fe2+  Fe113  1  0.63805331  0.52798667  0.74968305  1
  Fe2+  Fe114  1  0.03805331  0.42798667  0.74968305  1
  Fe2+  Fe115  1  0.43805331  0.32798667  0.74968305  1
  Fe2+  Fe116  1  0.83805331  0.72798667  0.74968305  1
  Fe2+  Fe117  1  0.23805331  0.62798667  0.74968305  1
  Fe2+  Fe118  1  0.03805331  0.92798667  0.74968305  1
  Fe2+  Fe119  1  0.43805331  0.82798667  0.74968305  1
  Fe2+  Fe120  1  0.36194629  0.97201343  0.46859827  1
  Fe2+  Fe121  1  0.56194629  0.17201343  0.46859827  1
  Fe2+  Fe122  1  0.96194629  0.07201343  0.46859827  1
  Fe2+  Fe123  1  0.36194629  0.47201343  0.46859827  1
  Fe2+  Fe124  1  0.76194629  0.37201343  0.46859827  1
  Fe2+  Fe125  1  0.16194629  0.27201343  0.46859827  1
  Fe2+  Fe126  1  0.56194629  0.67201343  0.46859827  1
  Fe2+  Fe127  1  0.96194629  0.57201343  0.46859827  1
  Fe2+  Fe128  1  0.76194629  0.87201343  0.46859827  1
  Fe2+  Fe129  1  0.16194629  0.77201343  0.46859827  1
  Fe2+  Fe130  1  0.46194709  0.07201323  0.47980756  1
  Fe2+  Fe131  1  0.66194709  0.27201323  0.47980756  1
  Fe2+  Fe132  1  0.06194709  0.17201323  0.47980756  1
  Fe2+  Fe133  1  0.46194709  0.57201323  0.47980756  1
  Fe2+  Fe134  1  0.86194709  0.47201323  0.47980756  1
  Fe2+  Fe135  1  0.26194709  0.37201323  0.47980756  1
  Fe2+  Fe136  1  0.66194709  0.77201323  0.47980756  1
  Fe2+  Fe137  1  0.06194709  0.67201323  0.47980756  1
  Fe2+  Fe138  1  0.86194709  0.97201323  0.47980756  1
  Fe2+  Fe139  1  0.26194709  0.87201323  0.47980756  1
  Fe2+  Fe140  1  0.53805331  0.92798667  0.55855677  1
  Fe2+  Fe141  1  0.73805331  0.12798667  0.55855677  1
  Fe2+  Fe142  1  0.13805331  0.02798667  0.55855677  1
  Fe2+  Fe143  1  0.53805331  0.42798667  0.55855677  1
  Fe2+  Fe144  1  0.93805331  0.32798667  0.55855677  1
  Fe2+  Fe145  1  0.33805331  0.22798667  0.55855677  1
  Fe2+  Fe146  1  0.73805331  0.62798667  0.55855677  1
  Fe2+  Fe147  1  0.13805331  0.52798667  0.55855677  1
  Fe2+  Fe148  1  0.93805331  0.82798667  0.55855677  1
  Fe2+  Fe149  1  0.33805331  0.72798667  0.55855677  1
  Fe2+  Fe150  1  0.63805331  0.02798667  0.56976606  1
  Fe2+  Fe151  1  0.83805331  0.22798667  0.56976606  1
  Fe2+  Fe152  1  0.23805331  0.12798667  0.56976606  1
  Fe2+  Fe153  1  0.63805331  0.52798667  0.56976606  1
  Fe2+  Fe154  1  0.03805331  0.42798667  0.56976606  1
  Fe2+  Fe155  1  0.43805331  0.32798667  0.56976606  1
  Fe2+  Fe156  1  0.83805331  0.72798667  0.56976606  1
  Fe2+  Fe157  1  0.23805331  0.62798667  0.56976606  1
  Fe2+  Fe158  1  0.03805331  0.92798667  0.56976606  1
  Fe2+  Fe159  1  0.43805331  0.82798667  0.56976606  1
  Si  Si160  1  0.71212099  0.15151516  0.12370049  1
  Si  Si161  1  0.93939372  0.24242425  0.12370049  1
  Si  Si162  1  1.16666645  0.33333334  0.12370049  1
  Si  Si163  1  1.21212099  0.15151516  0.12370049  1
  Si  Si164  1  0.43939372  0.24242425  0.12370049  1
  Si  Si165  1  0.66666645  0.33333334  0.12370049  1
  Si  Si166  1  0.89393917  0.42424243  0.12370049  1
  Si  Si167  1  1.12121190  0.51515152  0.12370049  1
  Si  Si168  1  0.39393917  0.42424243  0.12370049  1
  Si  Si169  1  0.62121190  0.51515152  0.12370049  1
  Si  Si170  1  0.84848463  0.60606061  0.12370049  1
  Si  Si171  1  1.07575736  0.69696970  0.12370049  1
  Si  Si172  1  1.34848463  0.60606061  0.12370049  1
  Si  Si173  1  0.57575736  0.69696970  0.12370049  1
  Si  Si174  1  0.80303008  0.78787880  0.12370049  1
  Si  Si175  1  1.03030281  0.87878789  0.12370049  1
  Si  Si176  1  1.30303008  0.78787880  0.12370049  1
  Si  Si177  1  0.53030281  0.87878789  0.12370049  1
  Si  Si178  1  0.75757554  0.96969698  0.12370049  1
  Si  Si179  1  0.98484827  0.06060607  0.12370049  1
  Si  Si180  1  1.25757554  0.96969698  0.12370049  1
  Si  Si181  1  0.48484827  0.06060607  0.12370049  1
  Si  Si182  1  1.21212089  0.15151516  0.16513178  1
  Si  Si183  1  1.43939362  0.24242425  0.16513178  1
  Si  Si184  1  0.66666635  0.33333335  0.16513178  1
  Si  Si185  1  0.71212089  0.15151516  0.16513178  1
  Si  Si186  1  0.93939362  0.24242425  0.16513178  1
  Si  Si187  1  1.16666635  0.33333335  0.16513178  1
  Si  Si188  1  1.39393907  0.42424244  0.16513178  1
  Si  Si189  1  0.62121180  0.51515153  0.16513178  1
  Si  Si190  1  0.89393907  0.42424244  0.16513178  1
  Si  Si191  1  1.12121180  0.51515153  0.16513178  1
  Si  Si192  1  1.34848453  0.60606062  0.16513178  1
  Si  Si193  1  1.57575725  0.69696971  0.16513178  1
  Si  Si194  1  0.84848453  0.60606062  0.16513178  1
  Si  Si195  1  1.07575725  0.69696971  0.16513178  1
  Si  Si196  1  1.30302998  0.78787880  0.16513178  1
  Si  Si197  1  1.53030271  0.87878789  0.16513178  1
  Si  Si198  1  0.80302998  0.78787880  0.16513178  1
  Si  Si199  1  1.03030271  0.87878789  0.16513178  1
  Si  Si200  1  1.25757544  0.96969698  0.16513178  1
  Si  Si201  1  1.48484816  1.06060607  0.16513178  1
  Si  Si202  1  0.75757544  0.96969698  0.16513178  1
  Si  Si203  1  0.98484816  1.06060607  0.16513178  1
  Si  Si204  1  0.95454510  0.18181819  0.17894222  1
  Si  Si205  1  1.18181783  0.27272729  0.17894222  1
  Si  Si206  1  1.40909055  0.36363638  0.17894222  1
  Si  Si207  1  1.45454510  0.18181819  0.17894222  1
  Si  Si208  1  0.68181783  0.27272729  0.17894222  1
  Si  Si209  1  0.90909055  0.36363638  0.17894222  1
  Si  Si210  1  1.13636328  0.45454547  0.17894222  1
  Si  Si211  1  1.36363601  0.54545456  0.17894222  1
  Si  Si212  1  0.63636328  0.45454547  0.17894222  1
  Si  Si213  1  0.86363601  0.54545456  0.17894222  1
  Si  Si214  1  1.09090874  0.63636365  0.17894222  1
  Si  Si215  1  1.31818146  0.72727274  0.17894222  1
  Si  Si216  1  1.59090874  0.63636365  0.17894222  1
  Si  Si217  1  0.81818146  0.72727274  0.17894222  1
  Si  Si218  1  1.04545419  0.81818183  0.17894222  1
  Si  Si219  1  1.27272692  0.90909092  0.17894222  1
  Si  Si220  1  1.54545419  0.81818183  0.17894222  1
  Si  Si221  1  0.77272692  0.90909092  0.17894222  1
  Si  Si222  1  0.99999965  1.00000001  0.17894222  1
  Si  Si223  1  1.22727237  0.09090910  0.17894222  1
  Si  Si224  1  1.49999965  1.00000001  0.17894222  1
  Si  Si225  1  0.72727237  0.09090910  0.17894222  1
  Si  Si226  1  1.45454500  0.18181820  0.22037352  1
  Si  Si227  1  1.68181773  0.27272729  0.22037352  1
  Si  Si228  1  0.90909045  0.36363638  0.22037352  1
  Si  Si229  1  0.95454500  0.18181820  0.22037352  1
  Si  Si230  1  1.18181773  0.27272729  0.22037352  1
  Si  Si231  1  1.40909045  0.36363638  0.22037352  1
  Si  Si232  1  1.63636318  0.45454547  0.22037352  1
  Si  Si233  1  0.86363591  0.54545456  0.22037352  1
  Si  Si234  1  1.13636318  0.45454547  0.22037352  1
  Si  Si235  1  1.36363591  0.54545456  0.22037352  1
  Si  Si236  1  1.59090863  0.63636365  0.22037352  1
  Si  Si237  1  1.81818136  0.72727274  0.22037352  1
  Si  Si238  1  1.09090863  0.63636365  0.22037352  1
  Si  Si239  1  1.31818136  0.72727274  0.22037352  1
  Si  Si240  1  1.54545409  0.81818183  0.22037352  1
  Si  Si241  1  1.77272682  0.90909093  0.22037352  1
  Si  Si242  1  1.04545409  0.81818183  0.22037352  1
  Si  Si243  1  1.27272682  0.90909093  0.22037352  1
  Si  Si244  1  1.49999954  1.00000002  0.22037352  1
  Si  Si245  1  1.72727227  1.09090911  0.22037352  1
  Si  Si246  1  0.99999954  1.00000002  0.22037352  1
  Si  Si247  1  1.22727227  1.09090911  0.22037352  1
  Si  Si248  1  1.19696921  0.21212123  0.23418395  1
  Si  Si249  1  1.42424193  0.30303032  0.23418395  1
  Si  Si250  1  1.65151466  0.39393941  0.23418395  1
  Si  Si251  1  1.69696921  0.21212123  0.23418395  1
  Si  Si252  1  0.92424193  0.30303032  0.23418395  1
  Si  Si253  1  1.15151466  0.39393941  0.23418395  1
  Si  Si254  1  1.37878739  0.48484850  0.23418395  1
  Si  Si255  1  1.60606012  0.57575759  0.23418395  1
  Si  Si256  1  0.87878739  0.48484850  0.23418395  1
  Si  Si257  1  1.10606012  0.57575759  0.23418395  1
  Si  Si258  1  1.33333284  0.66666668  0.23418395  1
  Si  Si259  1  1.56060557  0.75757578  0.23418395  1
  Si  Si260  1  1.83333284  0.66666668  0.23418395  1
  Si  Si261  1  1.06060557  0.75757578  0.23418395  1
  Si  Si262  1  1.28787830  0.84848487  0.23418395  1
  Si  Si263  1  1.51515103  0.93939396  0.23418395  1
  Si  Si264  1  1.78787830  0.84848487  0.23418395  1
  Si  Si265  1  1.01515103  0.93939396  0.23418395  1
  Si  Si266  1  1.24242375  1.03030305  0.23418395  1
  Si  Si267  1  1.46969648  0.12121214  0.23418395  1
  Si  Si268  1  1.74242375  1.03030305  0.23418395  1
  Si  Si269  1  0.96969648  0.12121214  0.23418395  1
  Si  Si270  1  1.69696911  0.21212123  0.27561525  1
  Si  Si271  1  1.92424183  0.30303032  0.27561525  1
  Si  Si272  1  1.15151456  0.39393942  0.27561525  1
  Si  Si273  1  1.19696911  0.21212123  0.27561525  1
  Si  Si274  1  1.42424183  0.30303032  0.27561525  1
  Si  Si275  1  1.65151456  0.39393942  0.27561525  1
  Si  Si276  1  1.87878729  0.48484851  0.27561525  1
  Si  Si277  1  1.10606001  0.57575760  0.27561525  1
  Si  Si278  1  1.37878729  0.48484851  0.27561525  1
  Si  Si279  1  1.60606001  0.57575760  0.27561525  1
  Si  Si280  1  1.83333274  0.66666669  0.27561525  1
  Si  Si281  1  2.06060547  0.75757578  0.27561525  1
  Si  Si282  1  1.33333274  0.66666669  0.27561525  1
  Si  Si283  1  1.56060547  0.75757578  0.27561525  1
  Si  Si284  1  1.78787820  0.84848487  0.27561525  1
  Si  Si285  1  2.01515092  0.93939396  0.27561525  1
  Si  Si286  1  1.28787820  0.84848487  0.27561525  1
  Si  Si287  1  1.51515092  0.93939396  0.27561525  1
  Si  Si288  1  1.74242365  1.03030305  0.27561525  1
  Si  Si289  1  1.96969638  1.12121214  0.27561525  1
  Si  Si290  1  1.24242365  1.03030305  0.27561525  1
  Si  Si291  1  1.46969638  1.12121214  0.27561525  1
  Si  Si292  1  1.43939331  0.24242427  0.28942568  1
  Si  Si293  1  1.66666604  0.33333336  0.28942568  1
  Si  Si294  1  1.89393877  0.42424245  0.28942568  1
  Si  Si295  1  1.93939331  0.24242427  0.28942568  1
  Si  Si296  1  1.16666604  0.33333336  0.28942568  1
  Si  Si297  1  1.39393877  0.42424245  0.28942568  1
  Si  Si298  1  1.62121150  0.51515154  0.28942568  1
  Si  Si299  1  1.84848422  0.60606063  0.28942568  1
  Si  Si300  1  1.12121150  0.51515154  0.28942568  1
  Si  Si301  1  1.34848422  0.60606063  0.28942568  1
  Si  Si302  1  1.57575695  0.69696972  0.28942568  1
  Si  Si303  1  1.80302968  0.78787881  0.28942568  1
  Si  Si304  1  2.07575695  0.69696972  0.28942568  1
  Si  Si305  1  1.30302968  0.78787881  0.28942568  1
  Si  Si306  1  1.53030241  0.87878790  0.28942568  1
  Si  Si307  1  1.75757513  0.96969699  0.28942568  1
  Si  Si308  1  2.03030241  0.87878790  0.28942568  1
  Si  Si309  1  1.25757513  0.96969699  0.28942568  1
  Si  Si310  1  1.48484786  1.06060608  0.28942568  1
  Si  Si311  1  1.71212059  0.15151517  0.28942568  1
  Si  Si312  1  1.98484786  1.06060608  0.28942568  1
  Si  Si313  1  1.21212059  0.15151517  0.28942568  1
  Si  Si314  1  1.93939321  0.24242427  0.33085698  1
  Si  Si315  1  2.16666594  0.33333336  0.33085698  1
  Si  Si316  1  1.39393867  0.42424245  0.33085698  1
  Si  Si317  1  1.43939321  0.24242427  0.33085698  1
  Si  Si318  1  1.66666594  0.33333336  0.33085698  1
  Si  Si319  1  1.89393867  0.42424245  0.33085698  1
  Si  Si320  1  2.12121139  0.51515154  0.33085698  1
  Si  Si321  1  1.34848412  0.60606063  0.33085698  1
  Si  Si322  1  1.62121139  0.51515154  0.33085698  1
  Si  Si323  1  1.84848412  0.60606063  0.33085698  1
  Si  Si324  1  2.07575685  0.69696972  0.33085698  1
  Si  Si325  1  2.30302958  0.78787881  0.33085698  1
  Si  Si326  1  1.57575685  0.69696972  0.33085698  1
  Si  Si327  1  1.80302958  0.78787881  0.33085698  1
  Si  Si328  1  2.03030230  0.87878791  0.33085698  1
  Si  Si329  1  2.25757503  0.96969700  0.33085698  1
  Si  Si330  1  1.53030230  0.87878791  0.33085698  1
  Si  Si331  1  1.75757503  0.96969700  0.33085698  1
  Si  Si332  1  1.98484776  1.06060609  0.33085698  1
  Si  Si333  1  2.21212049  1.15151518  0.33085698  1
  Si  Si334  1  1.48484776  1.06060609  0.33085698  1
  Si  Si335  1  1.71212049  1.15151518  0.33085698  1
  Si  Si336  1  1.68181742  0.27272730  0.34466741  1
  Si  Si337  1  1.90909015  0.36363639  0.34466741  1
  Si  Si338  1  2.13636288  0.45454548  0.34466741  1
  Si  Si339  1  2.18181742  0.27272730  0.34466741  1
  Si  Si340  1  1.40909015  0.36363639  0.34466741  1
  Si  Si341  1  1.63636288  0.45454548  0.34466741  1
  Si  Si342  1  1.86363560  0.54545457  0.34466741  1
  Si  Si343  1  2.09090833  0.63636366  0.34466741  1
  Si  Si344  1  1.36363560  0.54545457  0.34466741  1
  Si  Si345  1  1.59090833  0.63636366  0.34466741  1
  Si  Si346  1  1.81818106  0.72727276  0.34466741  1
  Si  Si347  1  2.04545379  0.81818185  0.34466741  1
  Si  Si348  1  2.31818106  0.72727276  0.34466741  1
  Si  Si349  1  1.54545379  0.81818185  0.34466741  1
  Si  Si350  1  1.77272651  0.90909094  0.34466741  1
  Si  Si351  1  1.99999924  1.00000003  0.34466741  1
  Si  Si352  1  2.27272651  0.90909094  0.34466741  1
  Si  Si353  1  1.49999924  1.00000003  0.34466741  1
  Si  Si354  1  1.72727197  1.09090912  0.34466741  1
  Si  Si355  1  1.95454469  0.18181821  0.34466741  1
  Si  Si356  1  2.22727197  1.09090912  0.34466741  1
  Si  Si357  1  1.45454469  0.18181821  0.34466741  1
  Si  Si358  1  2.18181732  0.27272730  0.38609871  1
  Si  Si359  1  2.40909005  0.36363640  0.38609871  1
  Si  Si360  1  1.63636277  0.45454549  0.38609871  1
  Si  Si361  1  1.68181732  0.27272730  0.38609871  1
  Si  Si362  1  1.90909005  0.36363640  0.38609871  1
  Si  Si363  1  2.13636277  0.45454549  0.38609871  1
  Si  Si364  1  2.36363550  0.54545458  0.38609871  1
  Si  Si365  1  1.59090823  0.63636367  0.38609871  1
  Si  Si366  1  1.86363550  0.54545458  0.38609871  1
  Si  Si367  1  2.09090823  0.63636367  0.38609871  1
  Si  Si368  1  2.31818096  0.72727276  0.38609871  1
  Si  Si369  1  2.54545368  0.81818185  0.38609871  1
  Si  Si370  1  1.81818096  0.72727276  0.38609871  1
  Si  Si371  1  2.04545368  0.81818185  0.38609871  1
  Si  Si372  1  2.27272641  0.90909094  0.38609871  1
  Si  Si373  1  2.49999914  1.00000003  0.38609871  1
  Si  Si374  1  1.77272641  0.90909094  0.38609871  1
  Si  Si375  1  1.99999914  1.00000003  0.38609871  1
  Si  Si376  1  2.22727187  1.09090912  0.38609871  1
  Si  Si377  1  2.45454459  1.18181821  0.38609871  1
  Si  Si378  1  1.72727187  1.09090912  0.38609871  1
  Si  Si379  1  1.95454459  1.18181821  0.38609871  1
  P5+  P380  1  0.31744903  0.98313774  0.77216952  1
  P5+  P381  1  0.51744903  0.18313774  0.77216952  1
  P5+  P382  1  0.91744903  0.08313774  0.77216952  1
  P5+  P383  1  0.31744903  0.48313774  0.77216952  1
  P5+  P384  1  0.71744903  0.38313774  0.77216952  1
  P5+  P385  1  0.11744903  0.28313774  0.77216952  1
  P5+  P386  1  0.51744903  0.68313774  0.77216952  1
  P5+  P387  1  0.91744903  0.58313774  0.77216952  1
  P5+  P388  1  0.71744903  0.88313774  0.77216952  1
  P5+  P389  1  0.11744903  0.78313774  0.77216952  1
  P5+  P390  1  0.81744943  0.98313764  0.71598730  1
  P5+  P391  1  0.01744943  0.18313764  0.71598730  1
  P5+  P392  1  0.41744943  0.08313764  0.71598730  1
  P5+  P393  1  0.81744943  0.48313764  0.71598730  1
  P5+  P394  1  0.21744943  0.38313764  0.71598730  1
  P5+  P395  1  0.61744943  0.28313764  0.71598730  1
  P5+  P396  1  0.01744943  0.68313764  0.71598730  1
  P5+  P397  1  0.41744943  0.58313764  0.71598730  1
  P5+  P398  1  0.21744943  0.88313764  0.71598730  1
  P5+  P399  1  0.61744943  0.78313764  0.71598730  1
  P5+  P400  1  0.18255017  0.01686246  0.68221102  1
  P5+  P401  1  0.38255017  0.21686246  0.68221102  1
  P5+  P402  1  0.78255017  0.11686246  0.68221102  1
  P5+  P403  1  0.18255017  0.51686246  0.68221102  1
  P5+  P404  1  0.58255017  0.41686246  0.68221102  1
  P5+  P405  1  0.98255017  0.31686246  0.68221102  1
  P5+  P406  1  0.38255017  0.71686246  0.68221102  1
  P5+  P407  1  0.78255017  0.61686246  0.68221102  1
  P5+  P408  1  0.58255017  0.91686246  0.68221102  1
  P5+  P409  1  0.98255017  0.81686246  0.68221102  1
  P5+  P410  1  0.68255057  0.01686236  0.62602881  1
  P5+  P411  1  0.88255057  0.21686236  0.62602881  1
  P5+  P412  1  0.28255057  0.11686236  0.62602881  1
  P5+  P413  1  0.68255057  0.51686236  0.62602881  1
  P5+  P414  1  0.08255057  0.41686236  0.62602881  1
  P5+  P415  1  0.48255057  0.31686236  0.62602881  1
  P5+  P416  1  0.88255057  0.71686236  0.62602881  1
  P5+  P417  1  0.28255057  0.61686236  0.62602881  1
  P5+  P418  1  0.08255057  0.91686236  0.62602881  1
  P5+  P419  1  0.48255057  0.81686236  0.62602881  1
  P5+  P420  1  0.31744903  0.98313774  0.59225252  1
  P5+  P421  1  0.51744903  0.18313774  0.59225252  1
  P5+  P422  1  0.91744903  0.08313774  0.59225252  1
  P5+  P423  1  0.31744903  0.48313774  0.59225252  1
  P5+  P424  1  0.71744903  0.38313774  0.59225252  1
  P5+  P425  1  0.11744903  0.28313774  0.59225252  1
  P5+  P426  1  0.51744903  0.68313774  0.59225252  1
  P5+  P427  1  0.91744903  0.58313774  0.59225252  1
  P5+  P428  1  0.71744903  0.88313774  0.59225252  1
  P5+  P429  1  0.11744903  0.78313774  0.59225252  1
  P5+  P430  1  0.81744943  0.98313764  0.53607031  1
  P5+  P431  1  0.01744943  0.18313764  0.53607031  1
  P5+  P432  1  0.41744943  0.08313764  0.53607031  1
  P5+  P433  1  0.81744943  0.48313764  0.53607031  1
  P5+  P434  1  0.21744943  0.38313764  0.53607031  1
  P5+  P435  1  0.61744943  0.28313764  0.53607031  1
  P5+  P436  1  0.01744943  0.68313764  0.53607031  1
  P5+  P437  1  0.41744943  0.58313764  0.53607031  1
  P5+  P438  1  0.21744943  0.88313764  0.53607031  1
  P5+  P439  1  0.61744943  0.78313764  0.53607031  1
  P5+  P440  1  0.18255017  0.01686246  0.50229402  1
  P5+  P441  1  0.38255017  0.21686246  0.50229402  1
  P5+  P442  1  0.78255017  0.11686246  0.50229402  1
  P5+  P443  1  0.18255017  0.51686246  0.50229402  1
  P5+  P444  1  0.58255017  0.41686246  0.50229402  1
  P5+  P445  1  0.98255017  0.31686246  0.50229402  1
  P5+  P446  1  0.38255017  0.71686246  0.50229402  1
  P5+  P447  1  0.78255017  0.61686246  0.50229402  1
  P5+  P448  1  0.58255017  0.91686246  0.50229402  1
  P5+  P449  1  0.98255017  0.81686246  0.50229402  1
  P5+  P450  1  0.68255057  0.01686236  0.44611181  1
  P5+  P451  1  0.88255057  0.21686236  0.44611181  1
  P5+  P452  1  0.28255057  0.11686236  0.44611181  1
  P5+  P453  1  0.68255057  0.51686236  0.44611181  1
  P5+  P454  1  0.08255057  0.41686236  0.44611181  1
  P5+  P455  1  0.48255057  0.31686236  0.44611181  1
  P5+  P456  1  0.88255057  0.71686236  0.44611181  1
  P5+  P457  1  0.28255057  0.61686236  0.44611181  1
  P5+  P458  1  0.08255057  0.91686236  0.44611181  1
  P5+  P459  1  0.48255057  0.81686236  0.44611181  1
  O2-  O460  1  0.44791462  0.95052134  0.77210396  1
  O2-  O461  1  0.64791462  0.15052134  0.77210396  1
  O2-  O462  1  0.04791462  0.05052134  0.77210396  1
  O2-  O463  1  0.44791462  0.45052134  0.77210396  1
  O2-  O464  1  0.84791462  0.35052134  0.77210396  1
  O2-  O465  1  0.24791462  0.25052134  0.77210396  1
  O2-  O466  1  0.64791462  0.65052134  0.77210396  1
  O2-  O467  1  0.04791462  0.55052134  0.77210396  1
  O2-  O468  1  0.84791462  0.85052134  0.77210396  1
  O2-  O469  1  0.24791462  0.75052134  0.77210396  1
  O2-  O470  1  0.61282895  0.98318227  0.63897908  1
  O2-  O471  1  0.81282895  0.18318227  0.63897908  1
  O2-  O472  1  0.21282895  0.08318227  0.63897908  1
  O2-  O473  1  0.61282895  0.48318227  0.63897908  1
  O2-  O474  1  0.01282895  0.38318227  0.63897908  1
  O2-  O475  1  0.41282895  0.28318227  0.63897908  1
  O2-  O476  1  0.81282895  0.68318227  0.63897908  1
  O2-  O477  1  0.21282895  0.58318227  0.63897908  1
  O2-  O478  1  0.01282895  0.88318227  0.63897908  1
  O2-  O479  1  0.41282895  0.78318227  0.63897908  1
  O2-  O480  1  0.85815992  0.02407076  0.63897908  1
  O2-  O481  1  0.05815992  0.22407076  0.63897908  1
  O2-  O482  1  0.45815992  0.12407076  0.63897908  1
  O2-  O483  1  0.85815992  0.52407076  0.63897908  1
  O2-  O484  1  0.25815992  0.42407076  0.63897908  1
  O2-  O485  1  0.65815992  0.32407076  0.63897908  1
  O2-  O486  1  0.05815992  0.72407076  0.63897908  1
  O2-  O487  1  0.45815992  0.62407076  0.63897908  1
  O2-  O488  1  0.25815992  0.92407076  0.63897908  1
  O2-  O489  1  0.65815992  0.82407076  0.63897908  1
  O2-  O490  1  0.55208578  0.04947856  0.62609418  1
  O2-  O491  1  0.75208578  0.24947856  0.62609418  1
  O2-  O492  1  0.15208578  0.14947856  0.62609418  1
  O2-  O493  1  0.55208578  0.54947856  0.62609418  1
  O2-  O494  1  0.95208578  0.44947856  0.62609418  1
  O2-  O495  1  0.35208578  0.34947856  0.62609418  1
  O2-  O496  1  0.75208578  0.74947856  0.62609418  1
  O2-  O497  1  0.15208578  0.64947856  0.62609418  1
  O2-  O498  1  0.95208578  0.94947856  0.62609418  1
  O2-  O499  1  0.35208578  0.84947856  0.62609418  1
  O2-  O500  1  0.73394578  0.00401356  0.60116880  1
  O2-  O501  1  0.93394578  0.20401356  0.60116880  1
  O2-  O502  1  0.33394578  0.10401355  0.60116880  1
  O2-  O503  1  0.73394578  0.50401356  0.60116880  1
  O2-  O504  1  0.13394578  0.40401356  0.60116880  1
  O2-  O505  1  0.53394578  0.30401355  0.60116880  1
  O2-  O506  1  0.93394578  0.70401355  0.60116880  1
  O2-  O507  1  0.33394578  0.60401356  0.60116880  1
  O2-  O508  1  0.13394578  0.90401355  0.60116880  1
  O2-  O509  1  0.53394578  0.80401356  0.60116880  1
  O2-  O510  1  0.54791422  0.05052144  0.71605286  1
  O2-  O511  1  0.74791422  0.25052144  0.71605286  1
  O2-  O512  1  0.14791422  0.15052144  0.71605286  1
  O2-  O513  1  0.54791422  0.55052144  0.71605286  1
  O2-  O514  1  0.94791422  0.45052144  0.71605286  1
  O2-  O515  1  0.34791422  0.35052144  0.71605286  1
  O2-  O516  1  0.74791422  0.75052144  0.71605286  1
  O2-  O517  1  0.14791422  0.65052144  0.71605286  1
  O2-  O518  1  0.94791422  0.95052144  0.71605286  1
  O2-  O519  1  0.34791422  0.85052144  0.71605286  1
  O2-  O520  1  0.14184108  0.97592924  0.75921924  1
  O2-  O521  1  0.34184108  0.17592924  0.75921924  1
  O2-  O522  1  0.74184108  0.07592924  0.75921924  1
  O2-  O523  1  0.14184108  0.47592924  0.75921924  1
  O2-  O524  1  0.54184108  0.37592924  0.75921924  1
  O2-  O525  1  0.94184108  0.27592924  0.75921924  1
  O2-  O526  1  0.34184108  0.67592924  0.75921924  1
  O2-  O527  1  0.74184108  0.57592924  0.75921924  1
  O2-  O528  1  0.54184108  0.87592924  0.75921924  1
  O2-  O529  1  0.94184108  0.77592924  0.75921924  1
  O2-  O530  1  0.35815892  0.02407076  0.66926074  1
  O2-  O531  1  0.55815892  0.22407076  0.66926074  1
  O2-  O532  1  0.95815892  0.12407076  0.66926074  1
  O2-  O533  1  0.35815892  0.52407076  0.66926074  1
  O2-  O534  1  0.75815892  0.42407076  0.66926074  1
  O2-  O535  1  0.15815892  0.32407076  0.66926074  1
  O2-  O536  1  0.55815892  0.72407076  0.66926074  1
  O2-  O537  1  0.95815892  0.62407076  0.66926074  1
  O2-  O538  1  0.75815892  0.92407076  0.66926074  1
  O2-  O539  1  0.15815892  0.82407076  0.66926074  1
  O2-  O540  1  0.64184108  0.97592924  0.72893758  1
  O2-  O541  1  0.84184108  0.17592924  0.72893758  1
  O2-  O542  1  0.24184108  0.07592924  0.72893758  1
  O2-  O543  1  0.64184108  0.47592924  0.72893758  1
  O2-  O544  1  0.04184108  0.37592924  0.72893758  1
  O2-  O545  1  0.44184108  0.27592924  0.72893758  1
  O2-  O546  1  0.84184108  0.67592924  0.72893758  1
  O2-  O547  1  0.24184108  0.57592924  0.72893758  1
  O2-  O548  1  0.04184108  0.87592924  0.72893758  1
  O2-  O549  1  0.44184108  0.77592924  0.72893758  1
  O2-  O550  1  0.88717205  0.01681773  0.72893758  1
  O2-  O551  1  0.08717205  0.21681773  0.72893758  1
  O2-  O552  1  0.48717205  0.11681773  0.72893758  1
  O2-  O553  1  0.88717205  0.51681773  0.72893758  1
  O2-  O554  1  0.28717205  0.41681773  0.72893758  1
  O2-  O555  1  0.68717205  0.31681773  0.72893758  1
  O2-  O556  1  0.08717205  0.71681773  0.72893758  1
  O2-  O557  1  0.48717205  0.61681773  0.72893758  1
  O2-  O558  1  0.28717205  0.91681773  0.72893758  1
  O2-  O559  1  0.68717205  0.81681773  0.72893758  1
  O2-  O560  1  0.26605462  0.99598635  0.61711253  1
  O2-  O561  1  0.46605462  0.19598635  0.61711253  1
  O2-  O562  1  0.86605462  0.09598635  0.61711253  1
  O2-  O563  1  0.26605462  0.49598635  0.61711253  1
  O2-  O564  1  0.66605462  0.39598634  0.61711253  1
  O2-  O565  1  0.06605462  0.29598634  0.61711253  1
  O2-  O566  1  0.46605462  0.69598635  0.61711253  1
  O2-  O567  1  0.86605462  0.59598635  0.61711253  1
  O2-  O568  1  0.66605462  0.89598635  0.61711253  1
  O2-  O569  1  0.06605462  0.79598634  0.61711253  1
  O2-  O570  1  0.23394538  0.00401365  0.70707103  1
  O2-  O571  1  0.43394538  0.20401366  0.70707103  1
  O2-  O572  1  0.83394538  0.10401365  0.70707103  1
  O2-  O573  1  0.23394538  0.50401366  0.70707103  1
  O2-  O574  1  0.63394538  0.40401365  0.70707103  1
  O2-  O575  1  0.03394538  0.30401365  0.70707103  1
  O2-  O576  1  0.43394538  0.70401365  0.70707103  1
  O2-  O577  1  0.83394538  0.60401365  0.70707103  1
  O2-  O578  1  0.63394538  0.90401365  0.70707103  1
  O2-  O579  1  0.03394538  0.80401366  0.70707103  1
  O2-  O580  1  0.76605502  0.99598624  0.69112730  1
  O2-  O581  1  0.96605502  0.19598625  0.69112730  1
  O2-  O582  1  0.36605502  0.09598624  0.69112730  1
  O2-  O583  1  0.76605502  0.49598625  0.69112730  1
  O2-  O584  1  0.16605502  0.39598625  0.69112730  1
  O2-  O585  1  0.56605502  0.29598625  0.69112730  1
  O2-  O586  1  0.96605502  0.69598625  0.69112730  1
  O2-  O587  1  0.36605502  0.59598624  0.69112730  1
  O2-  O588  1  0.16605502  0.89598625  0.69112730  1
  O2-  O589  1  0.56605502  0.79598625  0.69112730  1
  O2-  O590  1  0.45208618  0.94947846  0.68214546  1
  O2-  O591  1  0.65208618  0.14947846  0.68214546  1
  O2-  O592  1  0.05208618  0.04947846  0.68214546  1
  O2-  O593  1  0.45208618  0.44947846  0.68214546  1
  O2-  O594  1  0.85208618  0.34947846  0.68214546  1
  O2-  O595  1  0.25208618  0.24947846  0.68214546  1
  O2-  O596  1  0.65208618  0.64947846  0.68214546  1
  O2-  O597  1  0.05208618  0.54947846  0.68214546  1
  O2-  O598  1  0.85208618  0.84947846  0.68214546  1
  O2-  O599  1  0.25208618  0.74947846  0.68214546  1
  O2-  O600  1  0.11282855  0.98318237  0.66926074  1
  O2-  O601  1  0.31282855  0.18318237  0.66926074  1
  O2-  O602  1  0.71282855  0.08318237  0.66926074  1
  O2-  O603  1  0.11282855  0.48318237  0.66926074  1
  O2-  O604  1  0.51282855  0.38318237  0.66926074  1
  O2-  O605  1  0.91282855  0.28318237  0.66926074  1
  O2-  O606  1  0.31282855  0.68318237  0.66926074  1
  O2-  O607  1  0.71282855  0.58318237  0.66926074  1
  O2-  O608  1  0.51282855  0.88318237  0.66926074  1
  O2-  O609  1  0.91282855  0.78318237  0.66926074  1
  O2-  O610  1  0.38717145  0.01681763  0.75921924  1
  O2-  O611  1  0.58717145  0.21681763  0.75921924  1
  O2-  O612  1  0.98717145  0.11681763  0.75921924  1
  O2-  O613  1  0.38717145  0.51681763  0.75921924  1
  O2-  O614  1  0.78717145  0.41681763  0.75921924  1
  O2-  O615  1  0.18717145  0.31681763  0.75921924  1
  O2-  O616  1  0.58717145  0.71681763  0.75921924  1
  O2-  O617  1  0.98717145  0.61681763  0.75921924  1
  O2-  O618  1  0.78717145  0.91681763  0.75921924  1
  O2-  O619  1  0.18717145  0.81681763  0.75921924  1
  O2-  O620  1  0.44791462  0.95052134  0.59218697  1
  O2-  O621  1  0.64791462  0.15052134  0.59218697  1
  O2-  O622  1  0.04791462  0.05052134  0.59218697  1
  O2-  O623  1  0.44791462  0.45052134  0.59218697  1
  O2-  O624  1  0.84791462  0.35052134  0.59218697  1
  O2-  O625  1  0.24791462  0.25052134  0.59218697  1
  O2-  O626  1  0.64791462  0.65052134  0.59218697  1
  O2-  O627  1  0.04791462  0.55052134  0.59218697  1
  O2-  O628  1  0.84791462  0.85052134  0.59218697  1
  O2-  O629  1  0.24791462  0.75052134  0.59218697  1
  O2-  O630  1  0.61282895  0.98318227  0.45906209  1
  O2-  O631  1  0.81282895  0.18318227  0.45906209  1
  O2-  O632  1  0.21282895  0.08318227  0.45906209  1
  O2-  O633  1  0.61282895  0.48318227  0.45906209  1
  O2-  O634  1  0.01282895  0.38318227  0.45906209  1
  O2-  O635  1  0.41282895  0.28318227  0.45906209  1
  O2-  O636  1  0.81282895  0.68318227  0.45906209  1
  O2-  O637  1  0.21282895  0.58318227  0.45906209  1
  O2-  O638  1  0.01282895  0.88318227  0.45906209  1
  O2-  O639  1  0.41282895  0.78318227  0.45906209  1
  O2-  O640  1  0.85815992  0.02407076  0.45906209  1
  O2-  O641  1  0.05815992  0.22407076  0.45906209  1
  O2-  O642  1  0.45815992  0.12407076  0.45906209  1
  O2-  O643  1  0.85815992  0.52407076  0.45906209  1
  O2-  O644  1  0.25815992  0.42407076  0.45906209  1
  O2-  O645  1  0.65815992  0.32407076  0.45906209  1
  O2-  O646  1  0.05815992  0.72407076  0.45906209  1
  O2-  O647  1  0.45815992  0.62407076  0.45906209  1
  O2-  O648  1  0.25815992  0.92407076  0.45906209  1
  O2-  O649  1  0.65815992  0.82407076  0.45906209  1
  O2-  O650  1  0.55208578  0.04947856  0.44617719  1
  O2-  O651  1  0.75208578  0.24947856  0.44617719  1
  O2-  O652  1  0.15208578  0.14947856  0.44617719  1
  O2-  O653  1  0.55208578  0.54947856  0.44617719  1
  O2-  O654  1  0.95208578  0.44947856  0.44617719  1
  O2-  O655  1  0.35208578  0.34947856  0.44617719  1
  O2-  O656  1  0.75208578  0.74947856  0.44617719  1
  O2-  O657  1  0.15208578  0.64947856  0.44617719  1
  O2-  O658  1  0.95208578  0.94947856  0.44617719  1
  O2-  O659  1  0.35208578  0.84947856  0.44617719  1
  O2-  O660  1  0.73394578  0.00401356  0.42125181  1
  O2-  O661  1  0.93394578  0.20401356  0.42125181  1
  O2-  O662  1  0.33394578  0.10401355  0.42125181  1
  O2-  O663  1  0.73394578  0.50401356  0.42125181  1
  O2-  O664  1  0.13394578  0.40401356  0.42125181  1
  O2-  O665  1  0.53394578  0.30401355  0.42125181  1
  O2-  O666  1  0.93394578  0.70401355  0.42125181  1
  O2-  O667  1  0.33394578  0.60401356  0.42125181  1
  O2-  O668  1  0.13394578  0.90401355  0.42125181  1
  O2-  O669  1  0.53394578  0.80401356  0.42125181  1
  O2-  O670  1  0.54791422  0.05052144  0.53613587  1
  O2-  O671  1  0.74791422  0.25052144  0.53613587  1
  O2-  O672  1  0.14791422  0.15052144  0.53613587  1
  O2-  O673  1  0.54791422  0.55052144  0.53613587  1
  O2-  O674  1  0.94791422  0.45052144  0.53613587  1
  O2-  O675  1  0.34791422  0.35052144  0.53613587  1
  O2-  O676  1  0.74791422  0.75052144  0.53613587  1
  O2-  O677  1  0.14791422  0.65052144  0.53613587  1
  O2-  O678  1  0.94791422  0.95052144  0.53613587  1
  O2-  O679  1  0.34791422  0.85052144  0.53613587  1
  O2-  O680  1  0.14184108  0.97592924  0.57930224  1
  O2-  O681  1  0.34184108  0.17592924  0.57930224  1
  O2-  O682  1  0.74184108  0.07592924  0.57930224  1
  O2-  O683  1  0.14184108  0.47592924  0.57930224  1
  O2-  O684  1  0.54184108  0.37592924  0.57930224  1
  O2-  O685  1  0.94184108  0.27592924  0.57930224  1
  O2-  O686  1  0.34184108  0.67592924  0.57930224  1
  O2-  O687  1  0.74184108  0.57592924  0.57930224  1
  O2-  O688  1  0.54184108  0.87592924  0.57930224  1
  O2-  O689  1  0.94184108  0.77592924  0.57930224  1
  O2-  O690  1  0.35815892  0.02407076  0.48934375  1
  O2-  O691  1  0.55815892  0.22407076  0.48934375  1
  O2-  O692  1  0.95815892  0.12407076  0.48934375  1
  O2-  O693  1  0.35815892  0.52407076  0.48934375  1
  O2-  O694  1  0.75815892  0.42407076  0.48934375  1
  O2-  O695  1  0.15815892  0.32407076  0.48934375  1
  O2-  O696  1  0.55815892  0.72407076  0.48934375  1
  O2-  O697  1  0.95815892  0.62407076  0.48934375  1
  O2-  O698  1  0.75815892  0.92407076  0.48934375  1
  O2-  O699  1  0.15815892  0.82407076  0.48934375  1
  O2-  O700  1  0.64184108  0.97592924  0.54902059  1
  O2-  O701  1  0.84184108  0.17592924  0.54902059  1
  O2-  O702  1  0.24184108  0.07592924  0.54902059  1
  O2-  O703  1  0.64184108  0.47592924  0.54902059  1
  O2-  O704  1  0.04184108  0.37592924  0.54902059  1
  O2-  O705  1  0.44184108  0.27592924  0.54902059  1
  O2-  O706  1  0.84184108  0.67592924  0.54902059  1
  O2-  O707  1  0.24184108  0.57592924  0.54902059  1
  O2-  O708  1  0.04184108  0.87592924  0.54902059  1
  O2-  O709  1  0.44184108  0.77592924  0.54902059  1
  O2-  O710  1  0.88717205  0.01681773  0.54902059  1
  O2-  O711  1  0.08717205  0.21681773  0.54902059  1
  O2-  O712  1  0.48717205  0.11681773  0.54902059  1
  O2-  O713  1  0.88717205  0.51681773  0.54902059  1
  O2-  O714  1  0.28717205  0.41681773  0.54902059  1
  O2-  O715  1  0.68717205  0.31681773  0.54902059  1
  O2-  O716  1  0.08717205  0.71681773  0.54902059  1
  O2-  O717  1  0.48717205  0.61681773  0.54902059  1
  O2-  O718  1  0.28717205  0.91681773  0.54902059  1
  O2-  O719  1  0.68717205  0.81681773  0.54902059  1
  O2-  O720  1  0.26605462  0.99598635  0.43719553  1
  O2-  O721  1  0.46605462  0.19598635  0.43719553  1
  O2-  O722  1  0.86605462  0.09598635  0.43719553  1
  O2-  O723  1  0.26605462  0.49598635  0.43719553  1
  O2-  O724  1  0.66605462  0.39598634  0.43719553  1
  O2-  O725  1  0.06605462  0.29598634  0.43719553  1
  O2-  O726  1  0.46605462  0.69598635  0.43719553  1
  O2-  O727  1  0.86605462  0.59598635  0.43719553  1
  O2-  O728  1  0.66605462  0.89598635  0.43719553  1
  O2-  O729  1  0.06605462  0.79598634  0.43719553  1
  O2-  O730  1  0.23394538  0.00401365  0.52715403  1
  O2-  O731  1  0.43394538  0.20401366  0.52715403  1
  O2-  O732  1  0.83394538  0.10401365  0.52715403  1
  O2-  O733  1  0.23394538  0.50401366  0.52715403  1
  O2-  O734  1  0.63394538  0.40401365  0.52715403  1
  O2-  O735  1  0.03394538  0.30401365  0.52715403  1
  O2-  O736  1  0.43394538  0.70401365  0.52715403  1
  O2-  O737  1  0.83394538  0.60401365  0.52715403  1
  O2-  O738  1  0.63394538  0.90401365  0.52715403  1
  O2-  O739  1  0.03394538  0.80401366  0.52715403  1
  O2-  O740  1  0.76605502  0.99598624  0.51121030  1
  O2-  O741  1  0.96605502  0.19598625  0.51121030  1
  O2-  O742  1  0.36605502  0.09598624  0.51121030  1
  O2-  O743  1  0.76605502  0.49598625  0.51121030  1
  O2-  O744  1  0.16605502  0.39598625  0.51121030  1
  O2-  O745  1  0.56605502  0.29598625  0.51121030  1
  O2-  O746  1  0.96605502  0.69598625  0.51121030  1
  O2-  O747  1  0.36605502  0.59598624  0.51121030  1
  O2-  O748  1  0.16605502  0.89598625  0.51121030  1
  O2-  O749  1  0.56605502  0.79598625  0.51121030  1
  O2-  O750  1  0.45208618  0.94947846  0.50222847  1
  O2-  O751  1  0.65208618  0.14947846  0.50222847  1
  O2-  O752  1  0.05208618  0.04947846  0.50222847  1
  O2-  O753  1  0.45208618  0.44947846  0.50222847  1
  O2-  O754  1  0.85208618  0.34947846  0.50222847  1
  O2-  O755  1  0.25208618  0.24947846  0.50222847  1
  O2-  O756  1  0.65208618  0.64947846  0.50222847  1
  O2-  O757  1  0.05208618  0.54947846  0.50222847  1
  O2-  O758  1  0.85208618  0.84947846  0.50222847  1
  O2-  O759  1  0.25208618  0.74947846  0.50222847  1
  O2-  O760  1  0.11282855  0.98318237  0.48934375  1
  O2-  O761  1  0.31282855  0.18318237  0.48934375  1
  O2-  O762  1  0.71282855  0.08318237  0.48934375  1
  O2-  O763  1  0.11282855  0.48318237  0.48934375  1
  O2-  O764  1  0.51282855  0.38318237  0.48934375  1
  O2-  O765  1  0.91282855  0.28318237  0.48934375  1
  O2-  O766  1  0.31282855  0.68318237  0.48934375  1
  O2-  O767  1  0.71282855  0.58318237  0.48934375  1
  O2-  O768  1  0.51282855  0.88318237  0.48934375  1
  O2-  O769  1  0.91282855  0.78318237  0.48934375  1
  O2-  O770  1  0.38717145  0.01681763  0.57930224  1
  O2-  O771  1  0.58717145  0.21681763  0.57930224  1
  O2-  O772  1  0.98717145  0.11681763  0.57930224  1
  O2-  O773  1  0.38717145  0.51681763  0.57930224  1
  O2-  O774  1  0.78717145  0.41681763  0.57930224  1
  O2-  O775  1  0.18717145  0.31681763  0.57930224  1
  O2-  O776  1  0.58717145  0.71681763  0.57930224  1
  O2-  O777  1  0.98717145  0.61681763  0.57930224  1
  O2-  O778  1  0.78717145  0.91681763  0.57930224  1
  O2-  O779  1  0.18717145  0.81681763  0.57930224  1
